FoamFile { version 2.0; format ascii; class dictionary; object controlDict; }
// * * * * * * * * * * * * * * * * * * * * * * * * * * * * * * * * * * * * * //
// OLD BC variant: all-round freestream inlet, k-omega SST. No atmospheric lib.
application     simpleFoam;
startFrom       latestTime;
startTime       0;
stopAt          endTime;
endTime         2000;
deltaT          1;
writeControl    timeStep;
writeInterval   500;
purgeWrite      2;
writeFormat     ascii;
writePrecision  8;
writeCompression off;
timeFormat      general;
timePrecision   6;
runTimeModifiable true;
// ************************************************************************* //
